21
0 1
C            -0.3428778     -1.2297069     -1.1673590
C             1.7386834      0.0000000     -0.8038964
C            -0.3428778      1.2297069     -1.1673590
N            -1.0349408     -0.0000000     -0.8038964
N             0.9589524     -1.2105293     -0.5486400
N             0.9589524      1.2105293     -0.5486400
N            -2.3727145     -0.0000000     -0.6189700
N             1.0446781     -1.7634206      0.7294527
N             1.0446781      1.7634206      0.7294527
O            -2.9287033      1.0815640     -0.5268562
O            -2.9287033     -1.0815640     -0.5268562
O             2.0302937     -1.5193084      1.3687975
O             0.1645599     -2.5161821      1.0587758
O             2.0302937      1.5193085      1.3687975
O             0.1645599      2.5161821      1.0587758
H            -0.1986438     -1.2640527     -2.2304261
H            -0.9057914     -2.0962444     -0.8437027
H             2.6442224      0.0000000     -0.2054757
H             1.9899406      0.0000000     -1.8615882
H            -0.1986438      1.2640527     -2.2304261
H            -0.9057915      2.0962444     -0.8437027
